# Name file for MODFLOW-2005, generated by Flopy version 3.3.2.
#xll:0.0; yll:0.0; rotation:0.0; units:meters; lenuni:2; start_datetime:1-1-1970
LIST               2  BoxModel_Check.list
DIS               11  BoxModel_Check.dis
BAS6              13  BoxModel_Check.bas
BCF6              15  BoxModel_Check.bcf
OC                14  BoxModel_Check.oc
PCG               27  BoxModel_Check.pcg
DATA(BINARY)      53  BoxModel_Check.cbc REPLACE
DATA(BINARY)      51  BoxModel_Check.hds REPLACE
