# WEL package for  MODFLOW-2005, generated by Flopy.
         1         0 
         1         0 # stress period 1
         1        21        21             0.0
         1         0 # stress period 2
         1        21        21          -500.0
         1         0 # stress period 3
         1        21        21             0.0
         1         0 # stress period 4
         1        21        21          -500.0
         1         0 # stress period 5
         1        21        21             0.0
         1         0 # stress period 6
         1        21        21          -500.0
         1         0 # stress period 7
         1        21        21             0.0
         1         0 # stress period 8
         1        21        21          -500.0
         1         0 # stress period 9
         1        21        21             0.0
         1         0 # stress period 10
         1        21        21          -500.0
         1         0 # stress period 11
         1        21        21             0.0
         1         0 # stress period 12
         1        21        21          -500.0
         1         0 # stress period 13
         1        21        21             0.0
         1         0 # stress period 14
         1        21        21          -500.0
         1         0 # stress period 15
         1        21        21             0.0
         1         0 # stress period 16
         1        21        21          -500.0
         1         0 # stress period 17
         1        21        21             0.0
         1         0 # stress period 18
         1        21        21          -500.0
         1         0 # stress period 19
         1        21        21             0.0
         1         0 # stress period 20
         1        21        21          -500.0
         1         0 # stress period 21
         1        21        21             0.0
         1         0 # stress period 22
         1        21        21          -500.0
         1         0 # stress period 23
         1        21        21             0.0
         1         0 # stress period 24
         1        21        21          -500.0
         1         0 # stress period 25
         1        21        21             0.0
         1         0 # stress period 26
         1        21        21          -500.0
         1         0 # stress period 27
         1        21        21             0.0
         1         0 # stress period 28
         1        21        21          -500.0
         1         0 # stress period 29
         1        21        21             0.0
         1         0 # stress period 30
         1        21        21          -500.0
         1         0 # stress period 31
         1        21        21             0.0
         1         0 # stress period 32
         1        21        21          -500.0
         1         0 # stress period 33
         1        21        21             0.0
         1         0 # stress period 34
         1        21        21          -500.0
         1         0 # stress period 35
         1        21        21             0.0
         1         0 # stress period 36
         1        21        21          -500.0
         1         0 # stress period 37
         1        21        21             0.0
         1         0 # stress period 38
         1        21        21          -500.0
         1         0 # stress period 39
         1        21        21             0.0
         1         0 # stress period 40
         1        21        21          -500.0
         1         0 # stress period 41
         1        21        21             0.0
         1         0 # stress period 42
         1        21        21          -500.0
         1         0 # stress period 43
         1        21        21             0.0
         1         0 # stress period 44
         1        21        21          -500.0
         1         0 # stress period 45
         1        21        21             0.0
         1         0 # stress period 46
         1        21        21          -500.0
         1         0 # stress period 47
         1        21        21             0.0
         1         0 # stress period 48
         1        21        21          -500.0
         1         0 # stress period 49
         1        21        21             0.0
         1         0 # stress period 50
         1        21        21          -500.0
         1         0 # stress period 51
         1        21        21             0.0
         1         0 # stress period 52
         1        21        21          -500.0
         1         0 # stress period 53
         1        21        21             0.0
         1         0 # stress period 54
         1        21        21          -500.0
         1         0 # stress period 55
         1        21        21             0.0
         1         0 # stress period 56
         1        21        21          -500.0
         1         0 # stress period 57
         1        21        21             0.0
         1         0 # stress period 58
         1        21        21          -500.0
         1         0 # stress period 59
         1        21        21             0.0
         1         0 # stress period 60
         1        21        21          -500.0
         1         0 # stress period 61
         1        21        21             0.0
         1         0 # stress period 62
         1        21        21          -500.0
         1         0 # stress period 63
         1        21        21             0.0
         1         0 # stress period 64
         1        21        21          -500.0
         1         0 # stress period 65
         1        21        21             0.0
         1         0 # stress period 66
         1        21        21          -500.0
         1         0 # stress period 67
         1        21        21             0.0
         1         0 # stress period 68
         1        21        21          -500.0
         1         0 # stress period 69
         1        21        21             0.0
         1         0 # stress period 70
         1        21        21          -500.0
         1         0 # stress period 71
         1        21        21             0.0
         1         0 # stress period 72
         1        21        21          -500.0
         1         0 # stress period 73
         1        21        21             0.0
         1         0 # stress period 74
         1        21        21          -500.0
         1         0 # stress period 75
         1        21        21             0.0
         1         0 # stress period 76
         1        21        21          -500.0
         1         0 # stress period 77
         1        21        21             0.0
         1         0 # stress period 78
         1        21        21          -500.0
         1         0 # stress period 79
         1        21        21             0.0
         1         0 # stress period 80
         1        21        21          -500.0
         1         0 # stress period 81
         1        21        21             0.0
         1         0 # stress period 82
         1        21        21          -500.0
         1         0 # stress period 83
         1        21        21             0.0
         1         0 # stress period 84
         1        21        21          -500.0
         1         0 # stress period 85
         1        21        21             0.0
         1         0 # stress period 86
         1        21        21          -500.0
         1         0 # stress period 87
         1        21        21             0.0
         1         0 # stress period 88
         1        21        21          -500.0
         1         0 # stress period 89
         1        21        21             0.0
         1         0 # stress period 90
         1        21        21          -500.0
         1         0 # stress period 91
         1        21        21             0.0
         1         0 # stress period 92
         1        21        21          -500.0
         1         0 # stress period 93
         1        21        21             0.0
         1         0 # stress period 94
         1        21        21          -500.0
         1         0 # stress period 95
         1        21        21             0.0
         1         0 # stress period 96
         1        21        21          -500.0
         1         0 # stress period 97
         1        21        21             0.0
         1         0 # stress period 98
         1        21        21          -500.0
         1         0 # stress period 99
         1        21        21             0.0
         1         0 # stress period 100
         1        21        21          -500.0
         1         0 # stress period 101
         1        21        21             0.0
         1         0 # stress period 102
         1        21        21          -500.0
         1         0 # stress period 103
         1        21        21             0.0
         1         0 # stress period 104
         1        21        21          -500.0
         1         0 # stress period 105
         1        21        21             0.0
         1         0 # stress period 106
         1        21        21          -500.0
         1         0 # stress period 107
         1        21        21             0.0
         1         0 # stress period 108
         1        21        21          -500.0
         1         0 # stress period 109
         1        21        21             0.0
         1         0 # stress period 110
         1        21        21          -500.0
         1         0 # stress period 111
         1        21        21             0.0
         1         0 # stress period 112
         1        21        21          -500.0
         1         0 # stress period 113
         1        21        21             0.0
         1         0 # stress period 114
         1        21        21          -500.0
         1         0 # stress period 115
         1        21        21             0.0
         1         0 # stress period 116
         1        21        21          -500.0
         1         0 # stress period 117
         1        21        21             0.0
         1         0 # stress period 118
         1        21        21          -500.0
         1         0 # stress period 119
         1        21        21             0.0
         1         0 # stress period 120
         1        21        21          -500.0
         1         0 # stress period 121
         1        21        21             0.0
         1         0 # stress period 122
         1        21        21          -500.0
         1         0 # stress period 123
         1        21        21             0.0
         1         0 # stress period 124
         1        21        21          -500.0
         1         0 # stress period 125
         1        21        21             0.0
         1         0 # stress period 126
         1        21        21          -500.0
         1         0 # stress period 127
         1        21        21             0.0
         1         0 # stress period 128
         1        21        21          -500.0
         1         0 # stress period 129
         1        21        21             0.0
         1         0 # stress period 130
         1        21        21          -500.0
         1         0 # stress period 131
         1        21        21             0.0
         1         0 # stress period 132
         1        21        21          -500.0
         1         0 # stress period 133
         1        21        21             0.0
         1         0 # stress period 134
         1        21        21          -500.0
         1         0 # stress period 135
         1        21        21             0.0
         1         0 # stress period 136
         1        21        21          -500.0
         1         0 # stress period 137
         1        21        21             0.0
         1         0 # stress period 138
         1        21        21          -500.0
         1         0 # stress period 139
         1        21        21             0.0
         1         0 # stress period 140
         1        21        21          -500.0
         1         0 # stress period 141
         1        21        21             0.0
         1         0 # stress period 142
         1        21        21          -500.0
         1         0 # stress period 143
         1        21        21             0.0
         1         0 # stress period 144
         1        21        21          -500.0
         1         0 # stress period 145
         1        21        21             0.0
         1         0 # stress period 146
         1        21        21          -500.0
         1         0 # stress period 147
         1        21        21             0.0
         1         0 # stress period 148
         1        21        21          -500.0
         1         0 # stress period 149
         1        21        21             0.0
         1         0 # stress period 150
         1        21        21          -500.0
         1         0 # stress period 151
         1        21        21             0.0
         1         0 # stress period 152
         1        21        21          -500.0
         1         0 # stress period 153
         1        21        21             0.0
         1         0 # stress period 154
         1        21        21          -500.0
         1         0 # stress period 155
         1        21        21             0.0
         1         0 # stress period 156
         1        21        21          -500.0
         1         0 # stress period 157
         1        21        21             0.0
         1         0 # stress period 158
         1        21        21          -500.0
         1         0 # stress period 159
         1        21        21             0.0
         1         0 # stress period 160
         1        21        21          -500.0
         1         0 # stress period 161
         1        21        21             0.0
         1         0 # stress period 162
         1        21        21          -500.0
         1         0 # stress period 163
         1        21        21             0.0
         1         0 # stress period 164
         1        21        21          -500.0
         1         0 # stress period 165
         1        21        21             0.0
         1         0 # stress period 166
         1        21        21          -500.0
         1         0 # stress period 167
         1        21        21             0.0
         1         0 # stress period 168
         1        21        21          -500.0
         1         0 # stress period 169
         1        21        21             0.0
         1         0 # stress period 170
         1        21        21          -500.0
         1         0 # stress period 171
         1        21        21             0.0
         1         0 # stress period 172
         1        21        21          -500.0
         1         0 # stress period 173
         1        21        21             0.0
         1         0 # stress period 174
         1        21        21          -500.0
         1         0 # stress period 175
         1        21        21             0.0
         1         0 # stress period 176
         1        21        21          -500.0
         1         0 # stress period 177
         1        21        21             0.0
         1         0 # stress period 178
         1        21        21          -500.0
         1         0 # stress period 179
         1        21        21             0.0
         1         0 # stress period 180
         1        21        21          -500.0
         1         0 # stress period 181
         1        21        21             0.0
         1         0 # stress period 182
         1        21        21          -500.0
         1         0 # stress period 183
         1        21        21             0.0
         1         0 # stress period 184
         1        21        21          -500.0
         1         0 # stress period 185
         1        21        21             0.0
         1         0 # stress period 186
         1        21        21          -500.0
         1         0 # stress period 187
         1        21        21             0.0
         1         0 # stress period 188
         1        21        21          -500.0
         1         0 # stress period 189
         1        21        21             0.0
         1         0 # stress period 190
         1        21        21          -500.0
         1         0 # stress period 191
         1        21        21             0.0
         1         0 # stress period 192
         1        21        21          -500.0
         1         0 # stress period 193
         1        21        21             0.0
         1         0 # stress period 194
         1        21        21          -500.0
         1         0 # stress period 195
         1        21        21             0.0
         1         0 # stress period 196
         1        21        21          -500.0
         1         0 # stress period 197
         1        21        21             0.0
         1         0 # stress period 198
         1        21        21          -500.0
         1         0 # stress period 199
         1        21        21             0.0
         1         0 # stress period 200
         1        21        21          -500.0
         1         0 # stress period 201
         1        21        21             0.0
