# WEL package for  MODFLOW-2005, generated by Flopy.
        25         0 
        25         0 # stress period 1
         1         1        25           -0.25
         1         2        25           -0.25
         1         3        25           -0.25
         1         4        25           -0.25
         1         5        25           -0.25
         1         6        25           -0.25
         1         7        25           -0.25
         1         8        25           -0.25
         1         9        25           -0.25
         1        10        25           -0.25
         1        11        25           -0.25
         1        12        25           -0.25
         1        13        25           -0.25
         1        14        25           -0.25
         1        15        25           -0.25
         1        16        25           -0.25
         1        17        25           -0.25
         1        18        25           -0.25
         1        19        25           -0.25
         1        20        25           -0.25
         1        21        25           -0.25
         1        22        25           -0.25
         1        23        25           -0.25
         1        24        25           -0.25
         1        25        25           -0.25
