# LPF package for  MODFLOW-2005, generated by Flopy.
        53    -1E+30         0  STORAGECOEFFICIENT 
         1
         0
   1.000000E+00
         0
         0
CONSTANT    1.000000E+00                           #hk layer 1                    
CONSTANT    1.000000E-01                           #vka1                          
